* BSD 3-Clause License
* 
* Copyright 2020 Lawrence T. Clark, Vinay Vashishtha, or Arizona State
* University
* 
* Redistribution and use in source and binary forms, with or without
* modification, are permitted provided that the following conditions are met:
* 
* 1. Redistributions of source code must retain the above copyright notice,
* this list of conditions and the following disclaimer.
* 
* 2. Redistributions in binary form must reproduce the above copyright
* notice, this list of conditions and the following disclaimer in the
* documentation and/or other materials provided with the distribution.
* 
* 3. Neither the name of the copyright holder nor the names of its
* contributors may be used to endorse or promote products derived from this
* software without specific prior written permission.
* 
* THIS SOFTWARE IS PROVIDED BY THE COPYRIGHT HOLDERS AND CONTRIBUTORS "AS IS"
* AND ANY EXPRESS OR IMPLIED WARRANTIES, INCLUDING, BUT NOT LIMITED TO, THE
* IMPLIED WARRANTIES OF MERCHANTABILITY AND FITNESS FOR A PARTICULAR PURPOSE
* ARE DISCLAIMED. IN NO EVENT SHALL THE COPYRIGHT HOLDER OR CONTRIBUTORS BE
* LIABLE FOR ANY DIRECT, INDIRECT, INCIDENTAL, SPECIAL, EXEMPLARY, OR
* CONSEQUENTIAL DAMAGES (INCLUDING, BUT NOT LIMITED TO, PROCUREMENT OF
* SUBSTITUTE GOODS OR SERVICES; LOSS OF USE, DATA, OR PROFITS; OR BUSINESS
* INTERRUPTION) HOWEVER CAUSED AND ON ANY THEORY OF LIABILITY, WHETHER IN
* CONTRACT, STRICT LIABILITY, OR TORT (INCLUDING NEGLIGENCE OR OTHERWISE)
* ARISING IN ANY WAY OUT OF THE USE OF THIS SOFTWARE, EVEN IF ADVISED OF THE
* POSSIBILITY OF SUCH DAMAGE.

* Design:	A2O1A1Ixp33_ASAP7_75t_R
* Created:	"Tue Nov 17 2020"
* Vendor:	"Mentor Graphics Corporation"
* Program:	"xACT"
* Version:	"v2017.1_34.33"
* Corner Name: typical_27
* Nominal Temperature: 25C
* Circuit Temperature: 27C
* 
* Integrated TICER reduction is not enabled.
* SHORT DELAY THRESHOLD: 2e-15
* Fill Mode: NG
* PEX REDUCE CC ABSOLUTE : 1
* PEX REDUCE CC RELATIVE : 0.01
* Delta transform mode : 344834

* .include "A2O1A1Ixp33_ASAP7_75t_R.pex.sp.pex"

* Start of included file A2O1A1Ixp33_ASAP7_75t_R.pex.sp.pex

.subckt PM_A2O1A1Ixp33_ASAP7_75t_R%A1 vss 9 3 4
c1 1 vss 0.00478533f 
c2 3 vss 0.106147f 
c3 4 vss 0.0116217f 
r1 9 8 1.92382 
+ 
r2 7 8 3.90593 
+ 
r3 4 7 8.62802 
+ 
r4 6 7 19.3796 
+ 
r5 3 1 0.610027 
+ 
r6 1 6 6.49795 
+ 
.ends

.subckt PM_A2O1A1Ixp33_ASAP7_75t_R%A2 vss 9 3 4
c1 1 vss 0.00409611f 
c2 3 vss 0.103854f 
c3 4 vss 0.00991967f 
r1 9 8 0.874462 
+ 
r2 7 8 2.85657 
+ 
r3 4 7 8.74462 
+ 
r4 3 1 6.51726 
+ 
r5 1 7 19.3796 
+ 
.ends

.subckt PM_A2O1A1Ixp33_ASAP7_75t_R%C vss 6 3 4 1
c1 1 vss 0.00296378f 
c2 3 vss 0.0837219f 
c3 4 vss 0.00786917f 
r1 7 8 7.17059 
+ 
r2 6 7 5.18847 
+ 
r3 6 4 0.291487 
+ 
r4 3 1 6.81262 
+ 
r5 1 8 19.3796 
+ 
.ends

.subckt PM_A2O1A1Ixp33_ASAP7_75t_R%B vss 6 3 4
c1 1 vss 0.00895955f 
c2 3 vss 0.0860833f 
c3 4 vss 0.00864364f 
r1 7 8 3.08976 
+ 
r2 6 7 1.10765 
+ 
r3 6 4 4.37231 
+ 
r4 3 1 6.81262 
+ 
r5 1 8 19.3796 
+ 
.ends

.subckt PM_A2O1A1Ixp33_ASAP7_75t_R%8 vss 11 22 23 9 1 7 2 8
c1 1 vss 0.0093324f 
c2 2 vss 0.00684182f 
c3 7 vss 0.0371473f 
c4 8 vss 0.0031595f 
c5 9 vss 0.012681f 
r1 23 21 0.0308642 
+ 
r2 2 21 0.179012 
+ 
r3 8 2 0.179012 
+ 
r4 22 8 0.0308642 
+ 
r5 2 18 19.3796 
+ 
r6 17 18 3.14806 
+ 
r7 16 17 3.14806 
+ 
r8 15 16 6.29612 
+ 
r9 14 15 6.29612 
+ 
r10 13 14 3.14806 
+ 
r11 12 13 3.14806 
+ 
r12 9 12 2.68168 
+ 
r13 1 12 19.3796 
+ 
r14 11 10 0.0308642 
+ 
r15 7 10 0.154321 
+ 
r16 1 7 1e-05
.ends

.subckt PM_A2O1A1Ixp33_ASAP7_75t_R%Y vss 22 16 34 37 1 8 9 2 12 7
c1 1 vss 0.00954645f 
c2 2 vss 0.00984722f 
c3 7 vss 0.0368803f 
c4 8 vss 0.00196785f 
c5 9 vss 0.00032757f 
c6 10 vss 2.73252e-20 
c7 11 vss 0.00567079f 
c8 12 vss 0.00497656f 
c9 13 vss 0.00444234f 
c10 14 vss 0.0024006f 
r1 39 40 0.264706 
+ 
r2 1 39 0.705882 
+ 
r3 10 1 0.735294 
+ 
r4 37 36 0.0675676 
+ 
r5 1 36 0.391892 
+ 
r6 1 40 0.471383 
+ 
r7 9 1 0.391892 
+ 
r8 8 1 0.462963 
+ 
r9 34 8 0.0925926 
+ 
r10 1 31 19.3796 
+ 
r11 29 31 1.74892 
+ 
r12 27 28 2.09871 
+ 
r13 27 29 0.816164 
+ 
r14 26 28 2.91487 
+ 
r15 11 14 3.48106 
+ 
r16 11 26 4.19742 
+ 
r17 14 25 2.19852 
+ 
r18 24 25 2.91487 
+ 
r19 23 24 2.62338 
+ 
r20 22 23 1.57403 
+ 
r21 22 21 11.2514 
+ 
r22 20 21 12.4174 
+ 
r23 12 19 2.66732 
+ 
r24 12 20 3.03147 
+ 
r25 18 19 1.26818 
+ 
r26 17 18 2.44849 
+ 
r27 13 17 2.68168 
+ 
r28 2 17 19.3796 
+ 
r29 7 2 0.154321 
+ 
r30 16 7 0.0308642 
+ 
.ends


* End of included file A2O1A1Ixp33_ASAP7_75t_R.pex.sp.pex



*
.SUBCKT A2O1A1Ixp33_ASAP7_75t_R VSS VDD A1 A2 B C Y
*
* VSS VSS
* VDD VDD
* A1 A1
* A2 A2
* B B
* C C
* Y Y
*
*

M0 noxref_10 N_M0_g noxref_7 VSS nmos_rvt L=2e-08 nfin=3 
+ 
M1 VSS N_M1_g noxref_10 VSS nmos_rvt L=2e-08 nfin=3 
M2 noxref_7 N_M2_g VSS VSS nmos_rvt L=2e-08 nfin=3 
M3 N_M3_d N_M3_g noxref_7 VSS nmos_rvt L=2e-08 nfin=3 
+ 
M4 VDD N_M0_g N_M4_s VDD pmos_rvt L=2e-08 nfin=3 
M5 N_M5_d N_M1_g VDD VDD pmos_rvt L=2e-08 nfin=3 
M6 N_M6_d N_M2_g N_M6_s VDD pmos_rvt L=2e-08 nfin=3 
M7 VDD N_M3_g N_M7_s VDD pmos_rvt L=2e-08 nfin=2 


* .include "A2O1A1Ixp33_ASAP7_75t_R.pex.sp.pxi"

* Start of included file A2O1A1Ixp33_ASAP7_75t_R.pex.sp.pxi
x_PM_A2O1A1Ixp33_ASAP7_75t_R%A1 vss A1 N_M0_g N_A1_4
+ PM_A2O1A1Ixp33_ASAP7_75t_R%A1
x_PM_A2O1A1Ixp33_ASAP7_75t_R%A2 vss A2 N_M1_g N_A2_4
+ PM_A2O1A1Ixp33_ASAP7_75t_R%A2
cc_1 N_A2_4 N_A1_4 0.00471498f 
cc_2 N_M1_g N_M0_g 0.00717188f 
x_PM_A2O1A1Ixp33_ASAP7_75t_R%C vss C N_M3_g N_C_4 N_C_1
+ PM_A2O1A1Ixp33_ASAP7_75t_R%C
cc_3 N_M3_g N_M2_g 0.00313655f 
cc_4 N_C_4 N_B_4 0.00599974f 
x_PM_A2O1A1Ixp33_ASAP7_75t_R%B vss B N_M2_g N_B_4 PM_A2O1A1Ixp33_ASAP7_75t_R%B
cc_5 N_M2_g N_M1_g 0.00320139f 
cc_6 N_B_4 N_A2_4 0.00652985f 
x_PM_A2O1A1Ixp33_ASAP7_75t_R%8 vss N_M4_s N_M5_d N_M6_s N_8_9 N_8_1 N_8_7 N_8_2
+ N_8_8 PM_A2O1A1Ixp33_ASAP7_75t_R%8
cc_7 N_8_9 N_M0_g 0.00119603f 
cc_8 N_8_1 N_M0_g 0.00135881f 
cc_9 N_8_1 N_A1_4 0.00200488f 
cc_10 N_8_7 N_M0_g 0.0347887f 
cc_11 N_8_9 N_M1_g 0.00106778f 
cc_12 N_8_2 N_M1_g 0.00114008f 
cc_13 N_8_2 N_A2_4 0.00163127f 
cc_14 N_8_8 N_M1_g 0.0344912f 
cc_15 N_8_2 N_B_4 0.00102186f 
cc_16 N_8_2 N_M2_g 0.0011546f 
cc_17 N_8_8 N_M2_g 0.0350114f 
x_PM_A2O1A1Ixp33_ASAP7_75t_R%Y vss Y N_M3_d N_M6_d N_M7_s N_Y_1 N_Y_8 N_Y_9
+ N_Y_2 N_Y_12 N_Y_7 PM_A2O1A1Ixp33_ASAP7_75t_R%Y
cc_18 N_Y_1 N_M2_g 0.00121427f 
cc_19 N_Y_1 N_B_4 0.00127626f 
cc_20 N_Y_8 N_M2_g 0.00952f 
cc_21 N_Y_9 N_M2_g 0.0260073f 
cc_22 N_Y_1 N_M3_g 0.00307747f 
cc_23 N_Y_2 N_M3_g 0.00118839f 
cc_24 N_Y_1 N_C_1 0.00144258f 
cc_25 N_Y_9 N_M3_g 0.00499904f 
cc_26 N_Y_12 N_C_4 0.00673829f 
cc_27 N_Y_8 N_M3_g 0.00968716f 
cc_28 N_Y_7 N_M3_g 0.0569602f 
cc_29 N_Y_1 N_8_9 0.000718924f 
cc_30 N_Y_1 N_8_2 0.00115016f 
cc_31 N_Y_1 N_8_8 0.0028919f 


* End of included file A2O1A1Ixp33_ASAP7_75t_R.pex.sp.pxi
.ENDS
*

* Design:	A2O1A1O1Ixp25_ASAP7_75t_R
* Created:	"Tue Nov 17 2020"
* Vendor:	"Mentor Graphics Corporation"
* Program:	"xACT"
* Version:	"v2017.1_34.33"
* Corner Name: typical_27
* Nominal Temperature: 25C
* Circuit Temperature: 27C
* 
* Integrated TICER reduction is not enabled.
* SHORT DELAY THRESHOLD: 2e-15
* Fill Mode: NG
* PEX REDUCE CC ABSOLUTE : 1
* PEX REDUCE CC RELATIVE : 0.01
* Delta transform mode : 344834

* .include "A2O1A1O1Ixp25_ASAP7_75t_R.pex.sp.pex"

* Start of included file A2O1A1O1Ixp25_ASAP7_75t_R.pex.sp.pex

.subckt PM_A2O1A1O1Ixp25_ASAP7_75t_R%A1 vss 8 3 4
c1 1 vss 0.00526776f 
c2 3 vss 0.14004f 
c3 4 vss 0.01078f 
r1 8 7 5.18847 
+ 
r2 6 7 7.17059 
+ 
r3 4 6 8.62802 
+ 
r4 3 1 6.81262 
+ 
r5 1 6 19.3796 
+ 
.ends

.subckt PM_A2O1A1O1Ixp25_ASAP7_75t_R%A2 vss 6 3
c1 1 vss 0.00657172f 
c2 3 vss 0.14243f 
c3 4 vss 0.0137489f 
r1 7 8 7.17059 
+ 
r2 6 7 5.18847 
+ 
r3 6 4 1.45744 
+ 
r4 3 1 6.81262 
+ 
r5 1 8 19.3796 
+ 
.ends

.subckt PM_A2O1A1O1Ixp25_ASAP7_75t_R%B vss 8 3 4
c1 1 vss 0.0059371f 
c2 3 vss 0.157817f 
c3 4 vss 0.0108782f 
r1 8 7 1.22425 
+ 
r2 6 7 3.20636 
+ 
r3 4 6 8.62802 
+ 
r4 3 1 6.81262 
+ 
r5 1 6 19.3796 
+ 
.ends

.subckt PM_A2O1A1O1Ixp25_ASAP7_75t_R%C vss 6 3 4
c1 1 vss 0.00551727f 
c2 3 vss 0.123959f 
c3 4 vss 0.012541f 
r1 7 8 2.85657 
+ 
r2 6 7 0.874462 
+ 
r3 6 4 5.77145 
+ 
r4 3 1 6.81262 
+ 
r5 1 8 19.3796 
+ 
.ends

.subckt PM_A2O1A1O1Ixp25_ASAP7_75t_R%D vss 7 3 6 4
c1 1 vss 0.0046673f 
c2 3 vss 0.0920794f 
c3 4 vss 0.00315276f 
c4 5 vss 0.00638077f 
c5 6 vss 0.00244533f 
c6 7 vss 0.0014789f 
r1 7 5 7.33112 
+ 
r2 7 4 7.56431 
+ 
r3 7 12 4.06646 
+ 
r4 6 11 3.14806 
+ 
r5 6 12 4.19742 
+ 
r6 3 1 2.92627 
+ 
r7 1 11 19.3796 
+ 
.ends

.subckt PM_A2O1A1O1Ixp25_ASAP7_75t_R%Y vss 26 18 28 37 10 13 2 14 11 12
c1 1 vss 0.00995885f 
c2 2 vss 0.00875935f 
c3 3 vss 0.00998667f 
c4 10 vss 0.0386144f 
c5 11 vss 0.0385791f 
c6 12 vss 0.0386294f 
c7 13 vss 0.0179599f 
c8 14 vss 0.00790938f 
c9 15 vss 0.00611277f 
c10 16 vss 0.00303672f 
r1 12 3 0.154321 
+ 
r2 37 12 0.0308642 
+ 
r3 3 34 19.3796 
+ 
r4 34 35 3.14806 
+ 
r5 15 33 3.83327 
+ 
r6 15 35 1.96775 
+ 
r7 32 33 9.32759 
+ 
r8 31 32 8.51143 
+ 
r9 30 31 8.74462 
+ 
r10 29 30 9.50248 
+ 
r11 14 29 2.91487 
+ 
r12 26 14 0.0838085 
+ 
r13 28 27 0.0308642 
+ 
r14 11 27 0.154321 
+ 
r15 26 16 0.9184 
+ 
r16 2 22 19.3796 
+ 
r17 26 25 3.17357 
+ 
r18 24 25 4.19742 
+ 
r19 23 24 4.19742 
+ 
r20 22 23 5.24677 
+ 
r21 21 22 3.14806 
+ 
r22 20 21 3.14806 
+ 
r23 19 20 9.44419 
+ 
r24 13 19 9.44419 
+ 
r25 1 13 19.3796 
+ 
r26 10 1 0.154321 
+ 
r27 18 10 0.0308642 
+ 
r28 2 11 1e-05
.ends


* End of included file A2O1A1O1Ixp25_ASAP7_75t_R.pex.sp.pex



*
.SUBCKT A2O1A1O1Ixp25_ASAP7_75t_R VSS VDD A2 A1 B C D Y
*
* VSS VSS
* VDD VDD
* A2 A2
* A1 A1
* B B
* C C
* D D
* Y Y
*
*

M0 noxref_12 N_M0_g noxref_8 VSS nmos_rvt L=2e-08 nfin=3 
+ 
M1 VSS N_M1_g noxref_12 VSS nmos_rvt L=2e-08 nfin=3 
M2 noxref_8 N_M2_g VSS VSS nmos_rvt L=2e-08 nfin=3 
M3 N_M3_d N_M3_g noxref_8 VSS nmos_rvt L=2e-08 nfin=3 
+ 
M4 VSS N_M4_g N_M4_s VSS nmos_rvt L=2e-08 nfin=3 
M5 VDD N_M0_g noxref_9 VDD pmos_rvt L=2e-08 nfin=3 
M6 noxref_9 N_M1_g VDD VDD pmos_rvt L=2e-08 nfin=3 
M7 noxref_10 N_M2_g noxref_9 VDD pmos_rvt L=2e-08 nfin=3 
+ 
M8 VDD N_M3_g noxref_10 VDD pmos_rvt L=2e-08 nfin=3 
M9 N_M9_d N_M4_g noxref_10 VDD pmos_rvt L=2e-08 nfin=3 
+ 


* .include "A2O1A1O1Ixp25_ASAP7_75t_R.pex.sp.pxi"

* Start of included file A2O1A1O1Ixp25_ASAP7_75t_R.pex.sp.pxi
x_PM_A2O1A1O1Ixp25_ASAP7_75t_R%A1 vss A1 N_M1_g N_A1_4
+ PM_A2O1A1O1Ixp25_ASAP7_75t_R%A1
cc_1 N_A1_4 N_M0_g 0.00473045f 
cc_2 N_M1_g N_M0_g 0.00700735f 
x_PM_A2O1A1O1Ixp25_ASAP7_75t_R%A2 vss A2 N_M0_g PM_A2O1A1O1Ixp25_ASAP7_75t_R%A2
x_PM_A2O1A1O1Ixp25_ASAP7_75t_R%B vss B N_M2_g N_B_4
+ PM_A2O1A1O1Ixp25_ASAP7_75t_R%B
cc_3 N_M2_g N_M1_g 0.00319658f 
cc_4 N_B_4 N_A1_4 0.00663217f 
x_PM_A2O1A1O1Ixp25_ASAP7_75t_R%C vss C N_M3_g N_C_4
+ PM_A2O1A1O1Ixp25_ASAP7_75t_R%C
cc_5 N_M3_g N_M2_g 0.00334652f 
cc_6 N_C_4 N_B_4 0.00669639f 
x_PM_A2O1A1O1Ixp25_ASAP7_75t_R%D vss D N_M4_g N_D_6 N_D_4
+ PM_A2O1A1O1Ixp25_ASAP7_75t_R%D
x_PM_A2O1A1O1Ixp25_ASAP7_75t_R%Y vss Y N_M3_d N_M4_s N_M9_d N_Y_10 N_Y_13 N_Y_2
+ N_Y_14 N_Y_11 N_Y_12 PM_A2O1A1O1Ixp25_ASAP7_75t_R%Y
cc_7 N_Y_10 N_C_4 0.00153451f 
cc_8 N_Y_10 N_M3_g 0.0376497f 
cc_9 N_Y_13 N_M4_g 0.00163588f 
cc_10 N_Y_2 N_M4_g 0.00164186f 
cc_11 N_Y_14 N_D_6 0.00169761f 
cc_12 N_Y_2 N_D_4 0.00249831f 
cc_13 N_Y_11 N_M4_g 0.0149812f 
cc_14 N_Y_12 N_M4_g 0.0603279f 


* End of included file A2O1A1O1Ixp25_ASAP7_75t_R.pex.sp.pxi
.ENDS
*

* Design:	AND2x2_ASAP7_75t_R
* Created:	"Tue Nov 17 2020"
* Vendor:	"Mentor Graphics Corporation"
* Program:	"xACT"
* Version:	"v2017.1_34.33"
* Corner Name: typical_27
* Nominal Temperature: 25C
* Circuit Temperature: 27C
* 
* Integrated TICER reduction is not enabled.
* SHORT DELAY THRESHOLD: 2e-15
* Fill Mode: NG
* PEX REDUCE CC ABSOLUTE : 1
* PEX REDUCE CC RELATIVE : 0.01
* Delta transform mode : 344834

* .include "AND2x2_ASAP7_75t_R.pex.sp.pex"

* Start of included file AND2x2_ASAP7_75t_R.pex.sp.pex

.subckt PM_AND2x2_ASAP7_75t_R%7 vss 2 3 1
c1 1 vss 0.000862192f 
r1 2 1 0.209877 
+ 
r2 3 1 0.209877 
+ 
.ends

.subckt PM_AND2x2_ASAP7_75t_R%A vss 4 3 1
c1 1 vss 0.0060206f 
c2 3 vss 0.0864055f 
c3 4 vss 0.00458037f 
r1 3 1 2.92627 
+ 
r2 4 1 19.3796 
+ 
.ends

.subckt PM_AND2x2_ASAP7_75t_R%Y vss 27 20 21 34 35 7 1 10 9 8
c1 1 vss 0.00776163f 
c2 2 vss 0.00777215f 
c3 7 vss 0.00443483f 
c4 8 vss 0.0043833f 
c5 9 vss 0.000975971f 
c6 10 vss 0.00118688f 
c7 11 vss 0.00620263f 
c8 12 vss 0.00620497f 
c9 13 vss 0.00849947f 
c10 14 vss 0.0028829f 
c11 15 vss 0.0028829f 
c12 16 vss 0.00279961f 
c13 17 vss 0.00279961f 
r1 35 33 0.0308642 
+ 
r2 2 33 0.179012 
+ 
r3 8 2 0.179012 
+ 
r4 34 8 0.0308642 
+ 
r5 2 30 19.3796 
+ 
r6 30 31 4.19742 
+ 
r7 10 30 2.68168 
+ 
r8 15 31 2.5483 
+ 
r9 12 17 7.79507 
+ 
r10 12 15 7.79507 
+ 
r11 17 29 5.22999 
+ 
r12 28 29 8.97781 
+ 
r13 27 28 4.31401 
+ 
r14 27 26 0.46638 
+ 
r15 25 26 2.44849 
+ 
r16 24 25 6.7625 
+ 
r17 13 16 5.22999 
+ 
r18 13 24 9.44419 
+ 
r19 11 14 7.79507 
+ 
r20 11 16 7.79507 
+ 
r21 9 22 4.19742 
+ 
r22 9 14 2.5483 
+ 
r23 1 22 19.3796 
+ 
r24 21 19 0.0308642 
+ 
r25 1 19 0.179012 
+ 
r26 7 1 0.179012 
+ 
r27 20 7 0.0308642 
+ 
.ends

.subckt PM_AND2x2_ASAP7_75t_R%B vss 14 3 6 1 5 4
c1 1 vss 0.00247111f 
c2 3 vss 0.0389764f 
c3 4 vss 0.010018f 
c4 5 vss 0.0124126f 
c5 6 vss 0.00225199f 
c6 7 vss 0.0017066f 
r1 5 7 7.44771 
+ 
r2 4 7 5.5822 
+ 
r3 14 6 3.96423 
+ 
r4 6 7 3.83327 
+ 
r5 1 9 2.36633 
+ 
r6 1 10 2.09261 
+ 
r7 14 1 19.3796 
+ 
r8 3 9 1.73446 
+ 
r9 3 10 1.46074 
+ 
.ends

.subckt PM_AND2x2_ASAP7_75t_R%5 vss 9 10 52 53 55 3 13 15 11 12 20 1 17 16 21 19
c1 1 vss 0.00831547f 
c2 3 vss 0.0089213f 
c3 4 vss 0.00859746f 
c4 9 vss 0.0840374f 
c5 10 vss 0.086722f 
c6 11 vss 0.0419293f 
c7 12 vss 0.00654375f 
c8 13 vss 0.00156331f 
c9 14 vss 0.0080569f 
c10 15 vss 0.00796636f 
c11 16 vss 0.00323121f 
c12 17 vss 0.00320209f 
c13 18 vss 0.00259982f 
c14 19 vss 0.00285963f 
c15 20 vss 0.00110698f 
c16 21 vss 0.00285193f 
r1 55 54 0.0308642 
+ 
r2 11 54 0.154321 
+ 
r3 3 48 19.3796 
+ 
r4 53 51 0.0462963 
+ 
r5 4 51 0.268519 
+ 
r6 12 4 0.268519 
+ 
r7 52 12 0.0462963 
+ 
r8 47 48 2.09871 
+ 
r9 13 47 2.91487 
+ 
r10 13 46 2.65995 
+ 
r11 4 44 19.3796 
+ 
r12 18 41 1.05672 
+ 
r13 18 46 0.9184 
+ 
r14 44 45 3.14806 
+ 
r15 42 45 3.14806 
+ 
r16 15 21 2.5483 
+ 
r17 15 42 4.19742 
+ 
r18 40 41 4.43061 
+ 
r19 39 40 5.82974 
+ 
r20 14 19 2.5483 
+ 
r21 14 39 4.19742 
+ 
r22 21 38 3.36447 
+ 
r23 19 36 3.36447 
+ 
r24 37 38 4.78039 
+ 
r25 17 20 5.5822 
+ 
r26 17 37 6.52931 
+ 
r27 35 36 4.78039 
+ 
r28 16 20 5.5822 
+ 
r29 16 35 6.52931 
+ 
r30 10 30 2.68099 
+ 
r31 20 32 3.01711 
+ 
r32 28 30 3.5124 
+ 
r33 27 28 6.64723 
+ 
r34 26 27 6.64723 
+ 
r35 24 26 1.26439 
+ 
r36 23 24 2.24801 
+ 
r37 23 32 19.3796 
+ 
r38 1 23 2.24801 
+ 
r39 1 25 0.347531 
+ 
r40 9 23 2.44436 
+ 
r41 9 25 0.54388 
+ 
r42 9 26 1.46074 
+ 
r43 3 11 1e-05
.ends


* End of included file AND2x2_ASAP7_75t_R.pex.sp.pex



*
.SUBCKT AND2x2_ASAP7_75t_R VSS VDD B A Y
*
* VSS VSS
* VDD VDD
* B B
* A A
* Y Y
*
*

M0 N_M0_d N_M0_g N_M0_s VSS nmos_rvt L=2e-08 nfin=3 
M1 VSS N_M1_g N_M1_s VSS nmos_rvt L=2e-08 nfin=3 
M2 N_M2_d N_M2_g VSS VSS nmos_rvt L=2e-08 nfin=3 
M3 N_M3_d N_M3_g VSS VSS nmos_rvt L=2e-08 nfin=3 
M4 N_M4_d N_M0_g VDD VDD pmos_rvt L=2e-08 nfin=2 
M5 VDD N_M1_g N_M5_s VDD pmos_rvt L=2e-08 nfin=2 
M6 N_M6_d N_M2_g VDD VDD pmos_rvt L=2e-08 nfin=3 
M7 N_M7_d N_M3_g VDD VDD pmos_rvt L=2e-08 nfin=3 


* .include "AND2x2_ASAP7_75t_R.pex.sp.pxi"

* Start of included file AND2x2_ASAP7_75t_R.pex.sp.pxi
x_PM_AND2x2_ASAP7_75t_R%7 vss N_M0_d N_M1_s N_7_1 PM_AND2x2_ASAP7_75t_R%7
cc_1 N_7_1 N_M0_g 0.0168496f 
cc_2 N_7_1 N_M1_g 0.0168556f 
x_PM_AND2x2_ASAP7_75t_R%A vss A N_M1_g N_A_1 PM_AND2x2_ASAP7_75t_R%A
cc_3 N_A N_B_6 0.00196195f 
cc_4 N_M1_g N_M0_g 0.00884622f 
x_PM_AND2x2_ASAP7_75t_R%Y vss Y N_M2_d N_M3_d N_M6_d N_M7_d N_Y_7 N_Y_1 N_Y_10
+ N_Y_9 N_Y_8 PM_AND2x2_ASAP7_75t_R%Y
cc_5 N_Y_7 N_5_20 0.000741594f 
cc_6 N_Y_7 N_M3_g 0.0589711f 
cc_7 N_Y_7 N_5_21 0.00111315f 
cc_8 N_Y_7 N_5_19 0.00113465f 
cc_9 N_Y_1 N_M2_g 0.00197546f 
cc_10 N_Y_10 N_5_17 0.00293945f 
cc_11 N_Y_9 N_5_16 0.00295304f 
cc_12 N_Y_7 N_5_1 0.0056829f 
cc_13 N_Y_8 N_M2_g 0.0288371f 
cc_14 N_Y_7 N_M2_g 0.0509766f 
x_PM_AND2x2_ASAP7_75t_R%B vss B N_M0_g N_B_6 N_B_1 N_B_5 N_B_4
+ PM_AND2x2_ASAP7_75t_R%B
x_PM_AND2x2_ASAP7_75t_R%5 vss N_M2_g N_M3_g N_M4_d N_M5_s N_M0_s N_5_3 N_5_13
+ N_5_15 N_5_11 N_5_12 N_5_20 N_5_1 N_5_17 N_5_16 N_5_21 N_5_19
+ PM_AND2x2_ASAP7_75t_R%5
cc_15 N_5_3 N_B_1 0.00072472f 
cc_16 N_5_13 N_B_6 0.000737525f 
cc_17 N_5_15 N_B_5 0.0010445f 
cc_18 N_5_11 N_B_1 0.0021718f 
cc_19 N_5_13 N_B_4 0.00363076f 
cc_20 N_5_12 N_M0_g 0.0105421f 
cc_21 N_5_3 N_M0_g 0.0043706f 
cc_22 N_5_11 N_M0_g 0.0521973f 
cc_23 N_M2_g N_A 0.000807678f 
cc_24 N_5_15 N_A 0.00083394f 
cc_25 N_5_20 N_A_1 0.000852345f 
cc_26 N_5_3 N_M1_g 0.000960143f 
cc_27 N_5_1 N_A_1 0.00179223f 
cc_28 N_5_17 N_A 0.00214875f 
cc_29 N_5_16 N_A 0.00217896f 
cc_30 N_5_12 N_M1_g 0.0105219f 
cc_31 N_5_20 N_A 0.00863704f 
cc_32 N_M2_g N_M1_g 0.0201687f 


* End of included file AND2x2_ASAP7_75t_R.pex.sp.pxi
.ENDS
*

* Design:	AND2x4_ASAP7_75t_R
* Created:	"Tue Nov 17 2020"
* Vendor:	"Mentor Graphics Corporation"
* Program:	"xACT"
* Version:	"v2017.1_34.33"
* Corner Name: typical_27
* Nominal Temperature: 25C
* Circuit Temperature: 27C
* 
* Integrated TICER reduction is not enabled.
* SHORT DELAY THRESHOLD: 2e-15
* Fill Mode: NG
* PEX REDUCE CC ABSOLUTE : 1
* PEX REDUCE CC RELATIVE : 0.01
* Delta transform mode : 344834

* .include "AND2x4_ASAP7_75t_R.pex.sp.pex"

* Start of included file AND2x4_ASAP7_75t_R.pex.sp.pex

.subckt PM_AND2x4_ASAP7_75t_R%8 vss 2 3 1
c1 1 vss 0.000735449f 
r1 2 1 0.209877 
+ 
r2 3 1 0.209877 
+ 
.ends

.subckt PM_AND2x4_ASAP7_75t_R%7__2 vss 2 3 1
c1 1 vss 0.000865051f 
r1 2 1 0.209877 
+ 
r2 3 1 0.209877 
+ 
.ends

.subckt PM_AND2x4_ASAP7_75t_R%A vss 18 5 6 1 7 8 2 9
c1 1 vss 0.00393074f 
c2 2 vss 0.00328239f 
c3 5 vss 0.0788304f 
c4 6 vss 0.0942714f 
c5 7 vss 0.0137203f 
c6 8 vss 0.0153024f 
c7 9 vss 0.00607645f 
c8 10 vss 0.00408735f 
c9 11 vss 0.00354683f 
r1 2 26 19.3796 
+ 
r2 6 2 4.17987 
+ 
r3 25 26 2.68168 
+ 
r4 24 25 7.22888 
+ 
r5 9 23 2.14973 
+ 
r6 9 24 8.74462 
+ 
r7 11 23 0.9184 
+ 
r8 22 23 4.24844 
+ 
r9 21 22 13.8748 
+ 
r10 20 21 12.1259 
+ 
r11 8 10 0.915974 
+ 
r12 8 20 2.91487 
+ 
r13 10 16 2.5483 
+ 
r14 18 17 4.31401 
+ 
r15 15 16 4.19742 
+ 
r16 7 15 5.01358 
+ 
r17 7 17 5.13017 
+ 
r18 5 1 4.17987 
+ 
r19 18 1 19.3796 
+ 
.ends

.subckt PM_AND2x4_ASAP7_75t_R%B vss 19 3 4 1 5
c1 1 vss 0.0121061f 
c2 3 vss 0.0395911f 
c3 4 vss 0.0395233f 
c4 5 vss 0.00603827f 
r1 19 18 0.991056 
+ 
r2 17 18 2.97317 
+ 
r3 5 17 4.31401 
+ 
r4 3 12 3.79335 
+ 
r5 12 13 3.67195 
+ 
r6 12 17 19.3796 
+ 
r7 9 13 4.05727 
+ 
r8 8 9 22.4112 
+ 
r9 7 8 22.4112 
+ 
r10 4 1 4.17987 
+ 
r11 1 7 7.72921 
+ 
r12 1 15 4.63801 
+ 
r13 4 7 4.17867 
+ 
r14 4 15 1.08747 
+ 
.ends

.subckt PM_AND2x4_ASAP7_75t_R%Y vss 31 24 25 36 37 44 45 48 49 15 4 1 18 2 13
+ 14 16
c1 1 vss 0.00983362f 
c2 2 vss 0.00915959f 
c3 3 vss 0.0089452f 
c4 4 vss 0.0089452f 
c5 13 vss 0.00429193f 
c6 14 vss 0.00423517f 
c7 15 vss 0.00428756f 
c8 16 vss 0.00423965f 
c9 17 vss 0.0144866f 
c10 18 vss 0.0127493f 
c11 19 vss 0.00790528f 
c12 20 vss 0.00305509f 
c13 21 vss 0.00305509f 
r1 49 47 0.0308642 
+ 
r2 4 47 0.179012 
+ 
r3 16 4 0.179012 
+ 
r4 48 16 0.0308642 
+ 
r5 45 43 0.0308642 
+ 
r6 2 43 0.179012 
+ 
r7 15 2 0.179012 
+ 
r8 44 15 0.0308642 
+ 
r9 4 40 19.3796 
+ 
r10 2 38 19.3796 
+ 
r11 40 41 3.14806 
+ 
r12 39 40 12.5922 
+ 
r13 38 39 12.5922 
+ 
r14 18 38 2.68168 
+ 
r15 21 33 3.36447 
+ 
r16 21 41 1.49895 
+ 
r17 37 35 0.0308642 
+ 
r18 3 35 0.179012 
+ 
r19 14 3 0.179012 
+ 
r20 36 14 0.0308642 
+ 
r21 32 33 8.97781 
+ 
r22 31 32 6.17953 
+ 
r23 31 30 3.14806 
+ 
r24 19 20 9.31081 
+ 
r25 19 30 11.8927 
+ 
r26 3 28 19.3796 
+ 
r27 20 29 1.49895 
+ 
r28 28 29 3.14806 
+ 
r29 27 28 12.5922 
+ 
r30 26 27 12.5922 
+ 
r31 17 26 2.68168 
+ 
r32 1 26 19.3796 
+ 
r33 25 23 0.0308642 
+ 
r34 1 23 0.179012 
+ 
r35 13 1 0.179012 
+ 
r36 24 13 0.0308642 
+ 
.ends

.subckt PM_AND2x4_ASAP7_75t_R%5 vss 12 13 14 15 78 79 82 83 86 87 5 1 19 4 3 23
+ 24 26 20 18 21 17 16 28
c1 1 vss 0.0208605f 
c2 3 vss 0.0088436f 
c3 4 vss 0.00411364f 
c4 5 vss 0.00847521f 
c5 12 vss 0.0854729f 
c6 13 vss 0.0806412f 
c7 14 vss 0.0806704f 
c8 15 vss 0.0909488f 
c9 16 vss 0.00928701f 
c10 17 vss 0.00850144f 
c11 18 vss 0.00851035f 
c12 19 vss 0.0116976f 
c13 20 vss 0.00196437f 
c14 21 vss 0.00336118f 
c15 22 vss 0.00113921f 
c16 23 vss 0.00454779f 
c17 24 vss 0.00362727f 
c18 25 vss 0.000403843f 
c19 26 vss 0.000447895f 
c20 27 vss 0.00656922f 
c21 28 vss 0.00137884f 
r1 87 85 0.0462963 
+ 
r2 3 85 0.268519 
+ 
r3 17 3 0.268519 
+ 
r4 86 17 0.0462963 
+ 
r5 83 81 0.0308642 
+ 
r6 4 81 0.179012 
+ 
r7 16 4 0.179012 
+ 
r8 82 16 0.0308642 
+ 
r9 79 77 0.0462963 
+ 
r10 5 77 0.268519 
+ 
r11 18 5 0.268519 
+ 
r12 78 18 0.0462963 
+ 
r13 3 75 19.3796 
+ 
r14 4 66 19.3796 
+ 
r15 5 63 19.3796 
+ 
r16 72 73 1.28254 
+ 
r17 72 75 2.09871 
+ 
r18 71 73 3.14806 
+ 
r19 70 71 6.17953 
+ 
r20 19 27 1.03499 
+ 
r21 19 70 4.19742 
+ 
r22 66 67 3.03147 
+ 
r23 20 26 0.56619 
+ 
r24 20 67 1.04935 
+ 
r25 62 63 3.14806 
+ 
r26 27 62 1.96775 
+ 
r27 26 61 3.36447 
+ 
r28 22 25 3.85983 
+ 
r29 22 27 3.83327 
+ 
r30 60 61 7.92845 
+ 
r31 21 25 4.67599 
+ 
r32 21 60 8.74462 
+ 
r33 25 59 4.79259 
+ 
r34 58 59 4.19742 
+ 
r35 57 58 2.44849 
+ 
r36 23 28 4.64701 
+ 
r37 23 57 6.29612 
+ 
r38 28 53 4.18063 
+ 
r39 15 49 2.92627 
+ 
r40 14 43 2.92627 
+ 
r41 13 37 2.92627 
+ 
r42 52 53 4.43061 
+ 
r43 51 52 2.79828 
+ 
r44 24 51 2.68168 
+ 
r45 47 49 4.08841 
+ 
r46 46 47 8.56549 
+ 
r47 44 46 8.56549 
+ 
r48 43 44 4.08841 
+ 
r49 41 43 4.08841 
+ 
r50 40 41 8.56549 
+ 
r51 38 40 8.56549 
+ 
r52 37 38 4.08841 
+ 
r53 35 37 4.08841 
+ 
r54 34 35 8.56549 
+ 
r55 33 34 8.56549 
+ 
r56 31 33 1.60739 
+ 
r57 30 31 2.48102 
+ 
r58 30 51 19.3796 
+ 
r59 1 30 2.48102 
+ 
r60 1 32 0.425942 
+ 
r61 12 30 2.66511 
+ 
r62 12 32 0.610027 
+ 
r63 12 33 1.79147 
+ 
.ends


* End of included file AND2x4_ASAP7_75t_R.pex.sp.pex



*
.SUBCKT AND2x4_ASAP7_75t_R VSS VDD A B Y
*
* VSS VSS
* VDD VDD
* A A
* B B
* Y Y
*
*

M0 VSS N_M0_g N_M0_s VSS nmos_rvt L=2e-08 nfin=3 
M1 N_M1_d N_M1_g N_M1_s VSS nmos_rvt L=2e-08 nfin=3 
M2 N_M2_d N_M10_g N_M2_s VSS nmos_rvt L=2e-08 nfin=3 
M3 VSS N_M11_g N_M3_s VSS nmos_rvt L=2e-08 nfin=3 
M4 N_M4_d N_M12_g VSS VSS nmos_rvt L=2e-08 nfin=3 
M5 N_M5_d N_M13_g VSS VSS nmos_rvt L=2e-08 nfin=3 
M6 N_M6_d N_M14_g VSS VSS nmos_rvt L=2e-08 nfin=3 
M7 N_M7_d N_M15_g VSS VSS nmos_rvt L=2e-08 nfin=3 
M8 N_M8_d N_M0_g VDD VDD pmos_rvt L=2e-08 nfin=2 
M9 VDD N_M1_g N_M9_s VDD pmos_rvt L=2e-08 nfin=2 
M10 VDD N_M10_g N_M10_s VDD pmos_rvt L=2e-08 nfin=2 
M11 N_M11_d N_M11_g VDD VDD pmos_rvt L=2e-08 nfin=2 
M12 N_M12_d N_M12_g VDD VDD pmos_rvt L=2e-08 nfin=3 
M13 N_M13_d N_M13_g VDD VDD pmos_rvt L=2e-08 nfin=3 
M14 N_M14_d N_M14_g VDD VDD pmos_rvt L=2e-08 nfin=3 
M15 N_M15_d N_M15_g VDD VDD pmos_rvt L=2e-08 nfin=3 


* .include "AND2x4_ASAP7_75t_R.pex.sp.pxi"

* Start of included file AND2x4_ASAP7_75t_R.pex.sp.pxi
x_PM_AND2x4_ASAP7_75t_R%8 vss N_M2_d N_M3_s N_8_1 PM_AND2x4_ASAP7_75t_R%8
cc_1 N_8_1 N_M11_g 0.0169525f 
cc_2 N_8_1 N_M10_g 0.0169486f 
x_PM_AND2x4_ASAP7_75t_R%7__2 vss N_M0_s N_M1_d N_7__2_1
+ PM_AND2x4_ASAP7_75t_R%7__2
cc_3 N_7__2_1 N_M0_g 0.0169274f 
cc_4 N_7__2_1 N_M1_g 0.0168654f 
x_PM_AND2x4_ASAP7_75t_R%A vss A N_M0_g N_M11_g N_A_1 N_A_7 N_A_8 N_A_2 N_A_9
+ PM_AND2x4_ASAP7_75t_R%A
x_PM_AND2x4_ASAP7_75t_R%B vss B N_M1_g N_M10_g N_B_1 N_B_5
+ PM_AND2x4_ASAP7_75t_R%B
cc_5 N_B_1 N_A_1 0.0019952f 
cc_6 N_B_5 N_A_7 0.00395915f 
cc_7 N_M1_g N_M0_g 0.00710728f 
cc_8 N_M10_g N_M11_g 0.00929267f 
x_PM_AND2x4_ASAP7_75t_R%Y vss Y N_M4_d N_M5_d N_M6_d N_M7_d N_M12_d N_M13_d
+ N_M14_d N_M15_d N_Y_15 N_Y_4 N_Y_1 N_Y_18 N_Y_2 N_Y_13 N_Y_14 N_Y_16
+ PM_AND2x4_ASAP7_75t_R%Y
cc_9 N_Y_15 N_5_1 0.00166308f 
cc_10 N_Y_15 N_M13_g 0.000804488f 
cc_11 N_Y_15 N_M14_g 0.00317678f 
cc_12 N_Y_15 N_5_24 0.00108312f 
cc_13 N_Y_4 N_M14_g 0.00156733f 
cc_14 N_Y_1 N_M12_g 0.00178332f 
cc_15 N_Y_18 N_5_28 0.00196412f 
cc_16 N_Y_2 N_M12_g 0.00220013f 
cc_17 N_Y_13 N_M12_g 0.0100312f 
cc_18 N_Y_14 N_M15_g 0.0279174f 
cc_19 N_Y_14 N_5_1 0.0111814f 
cc_20 N_Y_13 N_M13_g 0.053765f 
cc_21 N_Y_16 N_M15_g 0.0635899f 
cc_22 N_Y_16 N_M14_g 0.0359263f 
cc_23 N_Y_15 N_M12_g 0.067105f 
x_PM_AND2x4_ASAP7_75t_R%5 vss N_M12_g N_M13_g N_M14_g N_M15_g N_M10_s N_M11_d
+ N_M1_s N_M2_s N_M8_d N_M9_s N_5_5 N_5_1 N_5_19 N_5_4 N_5_3 N_5_23 N_5_24
+ N_5_26 N_5_20 N_5_18 N_5_21 N_5_17 N_5_16 N_5_28 PM_AND2x4_ASAP7_75t_R%5
cc_24 N_5_5 N_M0_g 0.000407908f 
cc_25 N_5_1 N_M0_g 0.000407996f 
cc_26 N_5_19 N_A_7 0.000605315f 
cc_27 N_5_4 N_A_8 0.00184587f 
cc_28 N_5_3 N_M0_g 0.000689206f 
cc_29 N_5_1 N_A_2 0.00263162f 
cc_30 N_5_23 N_A_9 0.00100716f 
cc_31 N_5_24 N_A_9 0.00102681f 
cc_32 N_5_26 N_A_8 0.00139381f 
cc_33 N_5_20 N_A_7 0.00215406f 
cc_34 N_5_18 N_M11_g 0.0105796f 
cc_35 N_5_21 N_A_9 0.00514658f 
cc_36 N_5_20 N_A_8 0.00768339f 
cc_37 N_M12_g N_M11_g 0.0173783f 
cc_38 N_5_17 N_M0_g 0.0269673f 
cc_39 N_5_5 N_M10_g 0.000414182f 
cc_40 N_5_3 N_M10_g 0.000678176f 
cc_41 N_5_4 N_B_1 0.000798276f 
cc_42 N_5_20 N_B_5 0.000886903f 
cc_43 N_5_19 N_B_5 0.000962497f 
cc_44 N_5_4 N_M10_g 0.00208775f 
cc_45 N_5_16 N_B_1 0.00387031f 
cc_46 N_5_17 N_M1_g 0.010576f 
cc_47 N_5_18 N_M10_g 0.0106258f 
cc_48 N_5_21 N_B_5 0.00639066f 
cc_49 N_5_16 N_M1_g 0.0529276f 
cc_50 N_5_16 N_M10_g 0.0479545f 


* End of included file AND2x4_ASAP7_75t_R.pex.sp.pxi
.ENDS
*

* Design:	AND2x6_ASAP7_75t_R
* Created:	"Tue Nov 17 2020"
* Vendor:	"Mentor Graphics Corporation"
* Program:	"xACT"
* Version:	"v2017.1_34.33"
* Corner Name: typical_27
* Nominal Temperature: 25C
* Circuit Temperature: 27C
* 
* Integrated TICER reduction is not enabled.
* SHORT DELAY THRESHOLD: 2e-15
* Fill Mode: NG
* PEX REDUCE CC ABSOLUTE : 1
* PEX REDUCE CC RELATIVE : 0.01
* Delta transform mode : 344834

* .include "AND2x6_ASAP7_75t_R.pex.sp.pex"

* Start of included file AND2x6_ASAP7_75t_R.pex.sp.pex

.subckt PM_AND2x6_ASAP7_75t_R%7__2 vss 2 3 1
c1 1 vss 0.000865052f 
r1 2 1 0.209877 
+ 
r2 3 1 0.209877 
+ 
.ends

.subckt PM_AND2x6_ASAP7_75t_R%8 vss 2 3 1
c1 1 vss 0.000746968f 
r1 2 1 0.209877 
+ 
r2 3 1 0.209877 
+ 
.ends

.subckt PM_AND2x6_ASAP7_75t_R%B vss 18 3 4 1 5
c1 1 vss 0.0121681f 
c2 3 vss 0.0396221f 
c3 4 vss 0.0395543f 
c4 5 vss 0.00607592f 
r1 4 14 4.17987 
+ 
r2 18 17 0.991056 
+ 
r3 16 17 2.97317 
+ 
r4 5 16 4.31401 
+ 
r5 12 14 7.72921 
+ 
r6 11 12 22.4112 
+ 
r7 10 11 22.4112 
+ 
r8 8 10 4.05727 
+ 
r9 7 8 3.67195 
+ 
r10 7 16 19.3796 
+ 
r11 1 7 3.67195 
+ 
r12 1 9 0.966062 
+ 
r13 3 7 3.79335 
+ 
r14 3 9 1.08747 
+ 
r15 3 10 4.17867 
+ 
.ends

.subckt PM_AND2x6_ASAP7_75t_R%A vss 18 5 6 2 7 8 9
c1 1 vss 0.00394232f 
c2 2 vss 0.00328572f 
c3 5 vss 0.0788349f 
c4 6 vss 0.0942842f 
c5 7 vss 0.0136553f 
c6 8 vss 0.0153445f 
c7 9 vss 0.00602544f 
c8 10 vss 0.00410762f 
c9 11 vss 0.00355432f 
r1 2 26 19.3796 
+ 
r2 6 2 4.17987 
+ 
r3 25 26 2.68168 
+ 
r4 24 25 7.22888 
+ 
r5 9 23 2.14973 
+ 
r6 9 24 8.74462 
+ 
r7 11 23 0.9184 
+ 
r8 22 23 4.24844 
+ 
r9 21 22 13.8748 
+ 
r10 20 21 12.1259 
+ 
r11 8 10 0.915974 
+ 
r12 8 20 2.91487 
+ 
r13 10 16 2.5483 
+ 
r14 18 17 4.31401 
+ 
r15 15 16 4.19742 
+ 
r16 7 15 5.01358 
+ 
r17 7 17 5.13017 
+ 
r18 5 1 4.17987 
+ 
r19 18 1 19.3796 
+ 
.ends

.subckt PM_AND2x6_ASAP7_75t_R%Y vss 41 34 35 48 49 58 59 62 63 66 67 70 71 22
+ 24 2 27 5 6 3 4 1 26 21 20 19 23
c1 1 vss 0.00994901f 
c2 2 vss 0.00915417f 
c3 3 vss 0.00931585f 
c4 4 vss 0.00931585f 
c5 5 vss 0.00977463f 
c6 6 vss 0.00977463f 
c7 19 vss 0.00427306f 
c8 20 vss 0.00427603f 
c9 21 vss 0.00421606f 
c10 22 vss 0.00428478f 
c11 23 vss 0.00427023f 
c12 24 vss 0.00422097f 
c13 25 vss 0.0142563f 
c14 26 vss 0.0132724f 
c15 27 vss 0.00525633f 
c16 28 vss 0.00905175f 
c17 29 vss 0.00905175f 
c18 30 vss 0.00210952f 
c19 31 vss 0.00210952f 
r1 71 69 0.0308642 
+ 
r2 6 69 0.179012 
+ 
r3 24 6 0.179012 
+ 
r4 70 24 0.0308642 
+ 
r5 67 65 0.0308642 
+ 
r6 4 65 0.179012 
+ 
r7 23 4 0.179012 
+ 
r8 66 23 0.0308642 
+ 
r9 63 61 0.0308642 
+ 
r10 2 61 0.179012 
+ 
r11 22 2 0.179012 
+ 
r12 62 22 0.0308642 
+ 
r13 6 54 19.3796 
+ 
r14 4 52 19.3796 
+ 
r15 2 50 19.3796 
+ 
r16 59 57 0.0308642 
+ 
r17 5 57 0.179012 
+ 
r18 21 5 0.179012 
+ 
r19 58 21 0.0308642 
+ 
r20 29 54 9.44419 
+ 
r21 29 31 8.26388 
+ 
r22 52 53 3.14806 
+ 
r23 51 52 12.5922 
+ 
r24 50 51 12.5922 
+ 
r25 26 50 2.68168 
+ 
r26 5 44 19.3796 
+ 
r27 31 43 3.83327 
+ 
r28 31 53 1.96775 
+ 
r29 49 47 0.0308642 
+ 
r30 3 47 0.179012 
+ 
r31 20 3 0.179012 
+ 
r32 48 20 0.0308642 
+ 
r33 28 44 9.44419 
+ 
r34 28 30 8.26388 
+ 
r35 42 43 8.97781 
+ 
r36 41 42 6.17953 
+ 
r37 41 40 3.14806 
+ 
r38 27 30 9.77961 
+ 
r39 27 40 11.8927 
+ 
r40 3 38 19.3796 
+ 
r41 30 39 1.96775 
+ 
r42 38 39 3.14806 
+ 
r43 37 38 12.5922 
+ 
r44 36 37 12.5922 
+ 
r45 25 36 2.68168 
+ 
r46 1 36 19.3796 
+ 
r47 35 33 0.0308642 
+ 
r48 1 33 0.179012 
+ 
r49 19 1 0.179012 
+ 
r50 34 19 0.0308642 
+ 
.ends

.subckt PM_AND2x6_ASAP7_75t_R%5 vss 12 13 14 15 16 17 94 95 98 99 102 103 20 5
+ 1 21 4 3 25 26 28 22 23 19 27 18 30
c1 1 vss 0.0308661f 
c2 3 vss 0.0124324f 
c3 4 vss 0.00787635f 
c4 5 vss 0.0124438f 
c5 12 vss 0.0864757f 
c6 13 vss 0.0824873f 
c7 14 vss 0.0824829f 
c8 15 vss 0.0824112f 
c9 16 vss 0.0823532f 
c10 17 vss 0.0842552f 
c11 18 vss 0.00860797f 
c12 19 vss 0.0096345f 
c13 20 vss 0.00983669f 
c14 21 vss 0.0105007f 
c15 22 vss 0.00283628f 
c16 23 vss 0.00295373f 
c17 24 vss 0.00262858f 
c18 25 vss 0.00477559f 
c19 26 vss 0.00347247f 
c20 27 vss 0.00237278f 
c21 28 vss 0.00231902f 
c22 29 vss 0.00756908f 
c23 30 vss 0.00292101f 
r1 103 101 0.0462963 
+ 
r2 3 101 0.268519 
+ 
r3 19 3 0.268519 
+ 
r4 102 19 0.0462963 
+ 
r5 99 97 0.0308642 
+ 
r6 4 97 0.179012 
+ 
r7 18 4 0.179012 
+ 
r8 98 18 0.0308642 
+ 
r9 95 93 0.0462963 
+ 
r10 5 93 0.268519 
+ 
r11 20 5 0.268519 
+ 
r12 94 20 0.0462963 
+ 
r13 3 91 19.3796 
+ 
r14 4 82 19.3796 
+ 
r15 5 79 19.3796 
+ 